17

O          1.644221915988         -2.214827741199          2.259081412920
C          0.635734063661         -1.824872466697          1.628267978594
C          0.596570018169         -0.736052902795          0.727908124217
C          1.539034424191          0.183418813461          0.262595158694
C          0.894371149280          1.039462322480         -0.628627803033
C         -0.468594750633          0.669614726016         -0.638510555966
C         -1.504681115463          0.887982284806         -1.696932271921
O         -1.321386392164         -0.012739896209         -2.808641305197
O         -0.624129214983         -0.456060914250          0.099238002990
H         -0.331977870125         -2.349893917548          1.754739956373
H          2.579867433387          0.202807558522          0.559824596692
H          1.314411490362          1.874081103592         -1.173316854555
H         -1.402697627073          1.894723797618         -2.099700808796
H         -2.503769920547          0.774444075027         -1.266309243393
H         -1.470845891276         -0.919178985669         -2.492614490655
H         -0.686276719250          2.414671984692          1.071856800165
O         -1.469272372623          2.177874670789          0.546624297762