47

O          0.088037256980         -1.842604918690          2.996215576509
C         -0.715512619628         -2.447637954537          2.269953262507
C         -0.637728216637         -3.863720910226          2.006550308200
C          0.246988057869         -4.854254888337          2.369881961677
C         -0.247131736581         -6.062920913395          1.807177507633
C         -1.400155042061         -5.739816599333          1.133165363122
C         -2.389261403030         -6.538864901221          0.353893290043
O         -3.651740097699         -6.675138506768          1.027929545326
O         -1.646902535911         -4.406821800168          1.244720097887
H         -1.580168491880         -1.929023409956          1.828263707646
H          1.137508474216         -4.716084204323          2.967324875645
H          0.185565994904         -7.051158080268          1.883941565037
H         -2.002350006156         -7.551449985121          0.224206772051
H         -2.534280456313         -6.091719245288         -0.638811701746
H         -4.085242273518         -5.805995081150          1.047122467206
O          0.247316019251         -3.310840033061         -1.326317255169
C          0.670428631502         -2.337712970967         -0.614856641512
C         -0.009406161312         -1.167422152568         -0.309662376873
C         -1.303927268310         -0.673561659095         -0.639781719650
C         -1.446251290080          0.590939970712         -0.160557744736
C         -0.133125098676          1.013905376941          0.431869011702
C         -0.137740231654          1.638786621246          1.833003472725
O         -0.748160211402          0.804502909629          2.802682724950
O          0.644415261699         -0.164141539512          0.458551500712
H          1.685011933099         -2.400282818536         -0.169482227281
H         -2.043098382725         -1.251419398147         -1.183292253331
H         -2.304172830146          1.246004555036         -0.226386934085
H         -0.717495904006          2.565218691665          1.820476040673
H          0.902415003167          1.876208438036          2.104321187318
H         -0.301482667404         -0.073978415278          2.815068627167
O          0.619909071430          1.910696017790         -0.492739274336
C          0.341894124297          3.284872923592         -0.508218876773
C          1.221856912853          3.874764442670         -1.570109160125
C          1.928246904667          3.352126626218         -2.613960934140
C          2.514558872070          4.467303052285         -3.301653085437
C          2.130727045754          5.591666931399         -2.628145143373
C          2.367138548563          7.048054970756         -2.825853322894
O          1.216957667934          7.747517780122         -3.341830987505
O          1.338164572847          5.238984641296         -1.560432850167
H          0.548084535674          3.767334302845          0.454346230532
H          2.020156217495          2.302358748871         -2.852598120630
H          3.143152609903          4.438896047810         -4.181811985519
H          3.155556972839          7.181009197877         -3.569627010475
H          2.695088677933          7.512347184855         -1.885899595111
H          0.519001480443          7.726154500925         -2.666546944563
H         -1.282788981638          3.185824678247         -1.596349535331
O         -1.036052417732          3.578410906586         -0.739765732176