47

O         -4.793036750746          0.223998696980          1.437741249059
C         -3.805666696144         -0.412178535851          0.922527579244
C         -2.718897539589         -0.947086926582          1.588172780131
C         -2.315914233751         -0.984670650669          2.951783784193
C         -1.112139426984         -1.609298434370          3.067755945106
C         -0.626119046777         -1.932521317319          1.690095401623
C         -0.147336652840         -3.362305485283          1.416942414061
O         -1.190441261242         -4.313526350667          1.618309015829
O         -1.725801971003         -1.662864247899          0.838807826453
H         -3.786768720117         -0.568414012634         -0.176273994930
H         -2.905914100406         -0.564415712781          3.758689369494
H         -0.528190589888         -1.794715711734          3.960242723465
H          0.657629887387         -3.612715027478          2.112260765413
H          0.244474971595         -3.433055363079          0.392511797294
H         -1.969258859012         -3.978135726020          1.140053192913
O          0.505388857867         -1.024125659774          1.404440639688
C          0.877598915983         -0.830349696056          0.060858353729
C          2.277650307253         -1.310304722045         -0.149446903450
C          3.203121397605         -1.870340309450          0.680763914973
C          4.354640166507         -2.149964933977         -0.129572817209
C          4.052582093832         -1.740778213478         -1.396981102277
C          4.779693697531         -1.773329171853         -2.695565676874
O          4.304447986589         -2.799608187680         -3.589634288802
O          2.777995074095         -1.222393855685         -1.420957966734
H          0.179158997026         -1.337632864838         -0.614992799560
H          3.071539673225         -2.061894809559          1.735850668565
H          5.286670028568         -2.599229171461          0.186691649107
H          5.830318430962         -2.004864848884         -2.508102991019
H          4.722509526551         -0.793257962583         -3.188224525978
H          3.394294508925         -2.580651163158         -3.849078275203
O          0.859491605279          0.566915251845         -0.241838606358
C         -0.438859762604          1.087337325334         -0.462350938969
C         -0.328037435674          2.572893459469         -0.317820365303
C          0.714117909820          3.434209479652         -0.134162160682
C          0.144851187432          4.751440987363         -0.094628115623
C         -1.203662103719          4.602178560306         -0.249575041554
C         -2.348244996934          5.551071309430         -0.325747046320
O         -2.862101285004          5.716581801096         -1.662226170524
O         -1.505808567678          3.267297599618         -0.385433383239
H         -1.151609159787          0.673109520495          0.255898560792
H          1.753800006688          3.157590661011         -0.034252363713
H          0.668710196277          5.689234539805          0.034315082524
H         -2.009316929339          6.540306045425         -0.011190301899
H         -3.154661993830          5.229997092912          0.347314623177
H         -3.258176195338          4.875072335354         -1.942724877016
H         -0.383404316313          1.094690330725         -2.417567068781
O         -0.949007331108          0.700131705201         -1.730092383955