44

O       -5.586365000      0.659371000      2.004034000
C       -4.519975000      0.053963000      1.900617000
C       -4.085554000     -0.619436000      0.698252000
C       -4.617400000     -0.763736000     -0.564811000
C       -3.676025000     -1.514705000     -1.315929000
C       -2.627935000     -1.790831000     -0.468684000
C       -1.381979000     -2.600746000     -0.628496000
O       -0.189570000     -1.909230000     -0.254984000
O       -2.864256000     -1.258940000      0.755687000
H       -3.812461000     -0.008089000      2.748569000
H       -5.562481000     -0.359896000     -0.900811000
H       -3.746185000     -1.812155000     -2.353133000
H       -1.327049000     -2.961253000     -1.663468000
H       -1.429161000     -3.470538000      0.035465000
O       -0.285064000      0.061890000     -1.575427000
C        0.411477000     -1.129036000     -1.271330000
C        1.853568000     -0.909783000     -0.905571000
C        2.782851000     -0.022716000     -1.366956000
C        4.029255000     -0.391588000     -0.762905000
C        3.781098000     -1.485202000      0.016635000
C        4.606847000     -2.313890000      0.935124000
O        4.369349000     -2.030900000      2.330629000
O        2.449815000     -1.821412000     -0.074475000
H        0.350750000     -1.686114000     -2.217801000
H        2.588851000      0.807876000     -2.027844000
H        4.985193000      0.102096000     -0.878556000
H        5.662533000     -2.093279000      0.763493000
H        4.438797000     -3.382156000      0.741140000
H        3.445696000     -2.255408000      2.531334000
O        3.414853000      3.555089000      0.931991000
C        2.564646000      3.234472000      0.023032000
C        1.477084000      2.393831000      0.155879000
C        0.982176000      1.601605000      1.224087000
C       -0.088565000      0.871142000      0.808869000
C       -0.353854000      1.184176000     -0.631799000
C       -1.729684000      1.779380000     -0.975352000
O       -1.934474000      3.032263000     -0.326377000
O        0.622320000      2.173032000     -0.967655000
H        2.685350000      3.665616000     -0.993104000
H        1.431107000      1.581807000      2.210935000
H       -0.683979000      0.167318000      1.372157000
H       -2.521420000      1.110773000     -0.636644000
H       -1.800599000      1.888841000     -2.066961000
H       -1.126010000      3.553853000     -0.476131000
