47

O         -5.536830345525         -3.733825162548         -1.053063248778
C         -4.953452297405         -3.088993325341         -0.132129946784
C         -5.102038950253         -1.731588733037          0.154626061018
C         -5.873798687068         -0.681723451014         -0.381218452692
C         -5.612166774354          0.472588941324          0.321117237625
C         -4.561286156427          0.159719971072          1.271829089889
C         -4.473472197227          0.746156547039          2.664288616975
O         -5.561167799240          0.310525149660          3.487246600565
O         -4.384458784186         -1.197454853502          1.262485888067
H         -4.244559183866         -3.619692271243          0.536196997564
H         -6.559746144848         -0.799197474869         -1.211741955921
H         -6.024019096638          1.461515922107          0.171349377068
H         -4.542413171021          1.833474919836          2.603540045331
H         -3.511907759316          0.476411798784          3.118601202296
H         -5.534627625311         -0.660625620170          3.523983454600
O         -3.102515125018          0.888658095923          0.594426827317
C         -1.964403342497          0.278019758462          0.925950340111
C         -0.756879123636          0.890384570741          0.916190854999
C         -0.356552147110          2.240977987742          0.616651530232
C          0.984340873432          2.338901676966          0.713865787978
C          1.550442353835          0.979008541434          1.033200537320
C          2.431853865196          0.878576680889          2.288399239563
O          1.702001863118          1.241704357921          3.454886749806
O          0.408105674673          0.159374509081          1.248412071962
H         -2.021906189840         -0.778217475022          1.202009816674
H         -1.056020023118          3.026786908399          0.357660036801
H          1.610371569332          3.207442862647          0.561596170855
H          3.271870870347          1.573454213009          2.223239024052
H          2.816330983625         -0.148491004851          2.366479481209
H          0.889767352867          0.705579097814          3.462149837656
O          2.217549172833          0.381773026931         -0.116335508524
C          3.567216441013          0.703953282607         -0.366494125207
C          3.949469754146         -0.067867281240         -1.592420030690
C          3.242737359701         -0.711995091129         -2.565458400623
C          4.210026685331         -1.201041385975         -3.506245862530
C          5.437785850454         -0.826472077663         -3.040064709522
C          6.830052229745         -0.992182504296         -3.540977154585
O          7.390084866408          0.222578416700         -4.077080837727
O          5.289647868979         -0.131280221897         -1.862426645332
H          4.218733695321          0.428900090480          0.469923355296
H          2.168718584896         -0.825491705966         -2.598269507572
H          4.019093691949         -1.761550411906         -4.411681645251
H          6.826379936305         -1.709051572101         -4.364699401281
H          7.477843634215         -1.382448162381         -2.744363696777
H          7.497780360687          0.856346131663         -3.348800782474
H          3.297530635817          2.398536082219         -1.310402525101
O          3.784263505101          2.101432196725         -0.520681286690