47

O          2.897617977870         -2.821124483861         -3.046675759401
C          2.355300030051         -2.870515956204         -1.949693141285
C          1.707648126872         -1.737563194411         -1.236344232995
C          1.653762297069         -0.526938073221         -1.831474783336
C          1.263556032202          0.878505354187         -1.447643587876
C          0.150808770941          1.281018052523         -0.465085342867
C         -0.275193856735          0.457919010934          0.754643236119
O         -0.852183726017         -0.794820018806          0.406764986750
O          1.246622310270         -2.127033969593         -0.013349028732
H          2.320609346809         -3.820239665315         -1.380443440068
H          2.094566095449         -0.551146979087         -2.827255030253
H          0.963892383778          1.364674200244         -2.381134300554
H         -0.989001645387          1.070833458483          1.315553124765
H          0.607442779346          0.285535858687          1.385806835653
H          0.366240806521         -1.647014908451          0.192139481075
H          1.488698860035          3.279085554991         -0.943175670771
O         -0.148451383332          2.488894794045         -0.468574669620
O          2.412567053923          3.070799968368         -1.202894487676
C          2.575085071837          1.673449032418         -1.019205903210
C          2.963847932672          1.373995402096          0.400185837921
C          2.961419289834          2.102865021899          1.554356548876
C          3.296749321103          1.187336884302          2.612210120152
C          3.485558858137         -0.034032580873          2.031972563836
C          3.768704208107         -1.411126430202          2.522979215876
O          2.616977629679         -2.267922954016          2.466415889809
O          3.293478058613          0.075153690642          0.673669302977
H          3.376248789115          1.356944198202         -1.696437483782
H          2.731291485194          3.155382958360          1.639684401764
H          3.377858830182          1.408410195146          3.668270919885
H          4.073893730067         -1.364618182287          3.571161314231
H          4.593116841567         -1.851467937116          1.943252199809
H          2.245453634398         -2.238185545702          1.557249662878
O         -6.569133644695         -1.622933453595          1.638940084829
C         -5.822010090695         -1.459077469486          0.671360133973
C         -4.985461968602         -0.302706888447          0.475568930152
C         -4.763385342313          0.851845029658          1.197417296391
C         -3.813228669437          1.607478774299          0.465744396143
C         -3.505934245447          0.879914430905         -0.664799851656
C         -2.526767305633          1.096101066142         -1.783598341384
O         -1.451642421735          0.207292868087         -1.742052129041
O         -4.213637825321         -0.279237807660         -0.668934454324
H         -5.752455025064         -2.221683234808         -0.127528153298
H         -5.232330622164          1.105446484054          2.138515843382
H         -3.386423692475          2.565349328791          0.729558629447
H         -2.187391038034          2.145901960749         -1.701149080657
H         -3.069524956896          1.008808371600         -2.742528012198
H         -1.276670937407         -0.554618368915         -0.537332716483