47

O          1.052887499931          2.992134849248         -2.114289399840
C          0.094021989904          2.676937492891         -2.888978613290
C         -1.123016931145          2.147805170679         -2.480106653926
C         -1.608139704627          1.755778712450         -1.182562525700
C         -3.003895559437          1.389314687369         -1.437316880141
C         -3.177897125923          1.340774969892         -2.779345920551
C         -4.335163019334          0.932107946734         -3.627499305600
O         -4.819017433804          1.999368079227         -4.461393220451
O         -2.061312696657          1.739967107930         -3.462137182025
H          0.205888724292          2.818913600124         -3.982826839851
H         -1.335345661798          2.338726339932         -0.309377938874
H         -3.739082216620          1.118401184910         -0.694418905956
H         -5.169266704626          0.640253585995         -2.986048497737
H         -4.057534476297          0.067718702547         -4.248334524098
H         -4.098456947164          2.265910067791         -5.056266582814
O         -2.508069183879         -3.453242312067         -2.136668403614
C         -2.365640516561         -2.983854745987         -0.987316831676
C         -1.642427778591         -1.799337700016         -0.665400617051
C         -0.932959397919         -0.915236523816         -1.436659982127
C         -0.505927218326          0.180672422873         -0.633357532062
C         -0.700079629847         -0.312352596994          0.799667701685
C         -1.260792991441          0.632282124971          1.874893698650
O         -2.615107838552          0.982536293326          1.630201583071
O         -1.622182678988         -1.396261133646          0.686130454682
H         -2.819054318631         -3.500282627017         -0.118715506058
H         -0.818683938570         -0.997939785464         -2.510387812492
H          0.427911749941          0.694697092632         -0.831236188740
H         -0.692029951056          1.564449280312          1.896439773368
H         -1.162873152502          0.134250368642          2.849599184979
H         -3.102413909122          0.151303319329          1.495850556195
O          0.532181840514         -0.934944829403          1.281357754993
C          1.493935658281         -0.153809665301          1.953852671549
C          2.595985942409         -1.098858058586          2.324887528506
C          2.925589345195         -2.366776022714          1.943929173537
C          4.141897249310         -2.689565265790          2.634045290868
C          4.466698162365         -1.600184636904          3.390897317097
C          5.598100780471         -1.271734191747          4.301072053169
O          6.547139203313         -0.355503497500          3.720461918152
O          3.521638673657         -0.617057716579          3.210491848676
H          1.085354501393          0.317977011894          2.853813958705
H          2.364003584371         -2.988992211810          1.262125340872
H          4.702730213844         -3.613003765823          2.577859804711
H          6.157149458092         -2.184981891570          4.514961616043
H          5.219095800228         -0.866349006626          5.249003819058
H          6.106233118572          0.500697554926          3.593029083371
H          2.465287320923          0.596855209100          0.424129111871
O          1.965445830837          0.945520194071          1.183626817095