44

O        2.877476000      5.246742000      1.959129000
C        1.920979000      4.947939000      1.249362000
C        1.820904000      3.715616000      0.505053000
C        2.655042000      2.626682000      0.366304000
C        2.002197000      1.726010000     -0.509534000
C        0.808392000      2.313500000     -0.859206000
C       -0.323120000      1.852012000     -1.716015000
O       -1.358050000      1.245322000     -0.927570000
O        0.685852000      3.522397000     -0.250076000
H        1.049499000      5.623847000      1.132438000
H        3.617000000      2.509933000      0.845916000
H        2.329952000      0.751945000     -0.842071000
H        0.072728000      1.133848000     -2.442745000
H       -0.765606000      2.711433000     -2.232722000
O       -0.148129000     -0.744659000     -0.631394000
C       -1.344319000     -0.199397000     -1.025998000
C       -2.443983000     -0.685900000     -0.129335000
C       -2.439421000     -1.565070000      0.911916000
C       -3.796330000     -1.664644000      1.366722000
C       -4.537596000     -0.846938000      0.565302000
C       -5.975121000     -0.459931000      0.517972000
O       -6.213512000      0.884460000      0.960320000
O       -3.719934000     -0.241691000     -0.360532000
H       -1.559333000     -0.453203000     -2.078462000
H       -1.565850000     -2.075495000      1.289236000
H       -4.175914000     -2.265635000      2.182069000
H       -6.538141000     -1.109884000      1.192636000
H       -6.370132000     -0.603930000     -0.499109000
H       -5.722514000      1.467242000      0.358420000
O        0.749842000     -0.901653000     -2.905295000
C        0.578811000     -1.571202000     -1.820897000
C        1.840806000     -1.983603000     -1.100343000
C        3.156504000     -1.785346000     -1.404147000
C        3.921633000     -2.425773000     -0.372823000
C        3.022681000     -2.989885000      0.483991000
C        3.132367000     -3.747043000      1.761135000
O        2.719266000     -2.984805000      2.906617000
O        1.744179000     -2.730614000      0.047405000
H       -0.115034000     -2.451610000     -1.863584000
H        3.519772000     -1.249337000     -2.268920000
H        4.998664000     -2.468367000     -0.278756000
H        4.179506000     -4.011308000      1.929843000
H        2.553439000     -4.681127000      1.696970000
H        1.793506000     -2.734508000      2.753241000
