15

O       -3.439224000     -0.438367000     -0.143950000
C       -2.294702000     -0.840557000      0.061409000
C       -1.123503000      0.006917000      0.038440000
C       -0.922393000      1.350247000     -0.191232000
C        0.474587000      1.574880000     -0.075505000
C        1.044904000      0.359341000      0.222697000
C        2.454297000     -0.081514000      0.441467000
O        2.958468000     -0.876923000     -0.642325000
O        0.086526000     -0.600424000      0.297506000
H       -2.094141000     -1.905839000      0.281473000
H       -1.693863000      2.073572000     -0.416666000
H        1.004591000      2.509762000     -0.196103000
H        2.533501000     -0.629927000      1.389527000
H        3.094658000      0.800803000      0.497582000
H        2.509961000     -1.738539000     -0.629318000