30

O         -1.706730311223          0.897587697354         -0.879197464978
C         -1.286631587922          1.979190985973         -0.245906895612
C         -0.249473062747          1.892400541224          0.636290918421
C          0.560764445458          0.744869172661          0.912633284829
C          1.260290945847          1.068939705539          2.110276816058
C          0.859601053401          2.327544817140          2.483771386465
C          1.243156815160          3.193170814485          3.642229810841
O          1.760973707377          4.458788796763          3.229414123687
O         -0.032861765018          2.863915937768          1.617765913411
H         -1.829907095906          2.901481489235         -0.438168602957
H          0.935477845425          0.077204308576          0.151068785933
H          2.008328841248          0.472796063902          2.613336884068
H          2.032684912554          2.696944908655          4.209755900764
H          0.372554610848          3.320112507001          4.301750450851
H          1.035534246460          4.988060569385          2.858865661533
O         -0.769080255472         -2.866857675366         -4.901845400475
C         -1.183515816082         -2.580861329721         -3.777575756958
C         -0.374942182359         -2.612108778778         -2.582630584594
C          0.944030350401         -2.920087789224         -2.327833345623
C          1.136160006289         -2.747360715596         -0.932320933544
C         -0.075233537246         -2.350076578161         -0.409965063553
C         -0.527836321696         -1.965017560608          0.968345322908
O         -1.005321557275         -0.646519357980          1.047317730114
O         -0.999467534440         -2.266579822463         -1.401543564576
H         -2.234456073231         -2.273819122635         -3.618701611793
H          1.673817891197         -3.224443878480         -3.065609767753
H          2.049500206450         -2.887724187234         -0.370343063428
H          0.323051422246         -2.131234936061          1.649542506157
H         -1.326587160073         -2.660489082179          1.279917976168
H         -1.440642502704          0.086317286650         -0.272735214720