30

O         -1.948313231535         -1.975953777788         -0.811085884936
C         -1.814147328007         -0.859875163705         -1.274649541873
C         -1.314399812858          0.294310103643         -0.457550147562
C         -1.799130475913          0.485737831612          0.967125560407
C         -1.605773733666          1.785079703445          1.222570525387
C         -0.984688324226          2.345360547995         -0.049178973353
C         -0.969661545152          3.832264435745         -0.309678494806
O         -0.316701347004          4.165933781193         -1.526913618557
O         -1.598544880617          1.569620465267         -1.068930864125
H         -2.025856036611         -0.635692018002         -2.337153333863
H         -2.103219592004         -0.316217889845          1.626784650277
H         -1.719257068393          2.326937215380          2.153569528815
H         -0.494014471626          4.321337816803          0.551688550299
H         -1.999175597824          4.190385983154         -0.386017492618
H          0.562899937360          3.750546259685         -1.514348024492
O          0.403864590643          1.836316777672         -0.074656147275
C          0.288237562518          0.453955955912         -0.428014253578
C          1.024466537582         -0.411714297196          0.527298140817
C          1.428665469185         -0.266419023607          1.822348116063
C          2.063622737529         -1.501035133743          2.184993793635
C          2.007080480891         -2.312616830347          1.087965997568
C          2.433995475776         -3.710652431289          0.807428492300
O          1.334694427181         -4.642302702845          0.777039127658
O          1.376692890003         -1.649874704545          0.059614142850
H          0.653368356816          0.300312145820         -1.449423708701
H          1.288299713621          0.612630009324          2.434685082488
H          2.507606944764         -1.754244482482          3.138476850083
H          3.090976100646         -4.049500795528          1.611104894798
H          2.989588904060         -3.757118938436         -0.138908215864
H          0.765231597818         -4.417642230472          0.022658654871