30

O          0.561975678153         -1.134329568035          0.809919435000
C          0.341308006520         -1.261682740167         -0.471226486503
C         -1.028943077235         -1.529324007546         -0.853510380911
C         -2.225076369883         -1.449682654235         -0.186760762846
C         -3.234067324497         -1.792892417476         -1.135916393854
C         -2.591506800469         -2.064639240371         -2.315337274839
C         -3.058311657201         -2.457594687295         -3.675078365464
O         -2.971790751164         -1.385019621704         -4.630206770339
O         -1.241344762139         -1.909503270557         -2.153960676965
H          1.128394276459         -1.668835794372         -1.108128159966
H         -2.353945367856         -1.181096128024          0.852212207528
H         -4.302059491521         -1.838831764617         -0.971497161083
H         -4.114496264132         -2.728967699985         -3.621191591422
H         -2.492859517993         -3.328939485732         -4.031780486883
H         -2.033641595849         -1.190407784818         -4.790528696417
O          0.632571813251          0.469003111828         -1.271125619233
C          0.734050882009          1.398822805134         -0.358295605322
C          1.432105472994          1.133089596214          0.782851629026
C          1.913717002318         -0.205986792274          1.112054173163
C          2.197088528108         -0.111242259949          2.547573146242
C          1.857670115261          1.135839222530          2.952087235364
C          1.929981881601          1.803335983548          4.288036076448
O          2.788944757283          2.949666049811          4.277531216172
O          1.381419912139          1.923473544916          1.937577425719
H          0.198345851395          2.342973307753         -0.499661807055
H          2.623346116621         -0.708158714641          0.454307700260
H          2.626653171499         -0.884895293110          3.168399821930
H          2.347552964259          1.106210588242          5.016979864841
H          0.917829859488          2.081828218793          4.614372704011
H          2.390230178916          3.628203827251          3.707798655667