30

O          0.801017387175         -1.190044486392          0.673545125710
C          0.561216761250         -1.107272126939         -0.707463327756
C         -0.875086152332         -1.432777766269         -0.928396076618
C         -1.990305796331         -1.356779343153         -0.145324219513
C         -3.093496275150         -1.725870135369         -0.984291842296
C         -2.575696546316         -2.003810097600         -2.217877266060
C         -3.169800520403         -2.414792296912         -3.519996101807
O         -3.221661771902         -1.345225961390         -4.484188454458
O         -1.212209131960         -1.829942280409         -2.194096142389
H          1.220717680849         -1.767074488019         -1.282914680211
H         -2.013490590101         -1.079388955509          0.898685542394
H         -4.137898816601         -1.782671264736         -0.707836593414
H         -4.205523615729         -2.719221609757         -3.355984064506
H         -2.618567157477         -3.268582080179         -3.936678393771
H         -2.311670850079         -1.107691862022         -4.727408441406
O          0.873395526195          0.218256236770         -1.289586754288
C          0.804033849565          1.295054266990         -0.429629944248
C          1.374835636258          1.107854196227          0.761464080711
C          1.849731433100         -0.269979599766          1.118684487634
C          1.958450018509         -0.148662523805          2.607243219300
C          1.683237076717          1.119327342669          2.950776971229
C          1.691537605521          1.826865115032          4.266149289983
O          2.647284396473          2.894300365663          4.302384099595
O          1.339866864949          1.932750583227          1.871115263783
H          0.293018839726          2.176837925912         -0.799657495766
H          2.785190524722         -0.574159243861          0.628455994206
H          2.285493370448         -0.928596572031          3.281095241260
H          1.977105692359          1.124066001481          5.051146360889
H          0.683488589607          2.205331941140          4.487036006394
H          2.360350542411          3.584972697941          3.682185578920