17

O         -0.270406688896         -2.375048868467         -2.069582402174
C          0.589144286085         -1.877093012786         -1.323310466047
C          0.382824444451         -0.640149047182         -0.648563188908
C         -0.809069070523          0.255923532813         -0.653755896346
C         -0.333479208564          1.391599167263          0.190839175188
C          0.900894545696          1.108842112782          0.626924644590
C          1.878064524902          1.827642441557          1.497626546580
O          2.181022855712          1.088380938459          2.684049493047
O          1.355821730796         -0.128163288682          0.137932013431
H          1.559860213235         -2.370317299730         -1.147200094778
H         -1.212960440309          0.493023770179         -1.640111792073
H         -0.909831308652          2.276763863452          0.419674550541
H          1.434872131832          2.773079746714          1.816417581588
H          2.791260626107          2.046291120152          0.927945585509
H          2.756625459713          0.341356686437          2.450720529922
O         -1.950798239887         -0.482925654722          0.044964959272
O         -3.119189679031          0.034043552170         -0.260178295498