17

O          2.508238280615          0.157692864862         -2.472765549713
C          1.862252601352         -0.487385170722         -1.633219726494
C          0.821965559827          0.099562990273         -0.839738081943
C          0.302396753993          1.422019236124         -0.807188972708
C         -0.688692257597          1.453390666210          0.123592584777
C         -0.782261823744          0.101776575917          0.748168014069
C         -2.141784815670         -0.596245175908          0.824572334934
O         -2.712578639249         -0.742461566120         -0.463444507442
O          0.150841889999         -0.700845085691          0.045785567689
H          2.058377973806         -1.557911878314         -1.452357368569
H          0.657469576047          2.230820889608         -1.431335456640
H         -1.312020375683          2.285543477706          0.422105263622
H         -2.822322805907          0.022507306351          1.413850822165
H         -2.009087693841         -1.560896425056          1.330039254044
H         -2.208475391878         -1.412512469676         -0.954748832524
O          0.902323264501          0.516143152047          2.350264159321
O         -0.349470806026          0.143001765260          2.202780986214