17

O         -0.790181117983          2.135871096481         -2.194277359826
C         -0.219032304867          1.852775950719         -1.158620762304
C         -0.136845680467          0.443423011490         -0.689175644872
C         -1.181565809875         -0.545622816143         -0.794840688941
C         -1.196790365037         -1.272402868957          0.373199277085
C         -0.205298417224         -0.709657381613          1.199101723463
C          0.214759958792         -1.066653986875          2.589820106778
O          1.443909607664         -0.498102701063          2.981712703981
O          0.390379690841          0.317071437457          0.611475937176
H          0.352887645775          2.580322041472         -0.558631431975
H         -1.779450403746         -0.693720238566         -1.683715546792
H         -1.815502772986         -2.121633044421          0.627402324892
H          0.319773031989         -2.155306947907          2.647928283998
H         -0.611448260803         -0.791828991510          3.265962573740
H          1.333541740109          0.457352060387          3.119479581952
O          0.952828911910         -0.027950433551         -2.948796125253
O          1.155548901227         -0.079131464799         -1.617880059162