17

O         -0.396976782921         -2.287490552460         -2.071571594778
C          0.477491820387         -1.837881046689         -1.316959125575
C          0.341245909271         -0.580914205139         -0.651427655127
C         -0.764516227517          0.386065946196         -0.662242416652
C         -0.217233342795          1.505494237940          0.128732870501
C          0.979276147547          1.127567761152          0.613503522178
C          1.985562337755          1.782798218333          1.501042931339
O          2.154695899149          1.074827234761          2.732793581146
O          1.334491137955         -0.147861903971          0.163113909165
H          1.413134910219         -2.388619183907         -1.120753242929
H         -1.285001362086          0.559912913197         -1.601258448351
H         -0.719497530968          2.442806393761          0.320769086103
H          1.629345938612          2.782458012040          1.757086425531
H          2.941725094588          1.879082960399          0.969478461829
H          2.656126337056          0.260709108009          2.561352617276
O         -1.993557410318         -0.257664772283          0.232573399883
O         -3.060944721301         -0.481370432805         -0.465604060118