17

O         -1.183448056155          2.376116222268         -1.842668295148
C         -0.196323875486          2.099690149485         -1.195078901162
C          0.146338364221          0.668630788540         -0.814157427392
C         -0.667850077998         -0.550980151508         -1.242206266188
C         -0.775565323992         -1.318420130080          0.033536147407
C         -0.173707950586         -0.618747184107          1.005534500762
C          0.012394826833         -0.880978262344          2.465004388529
O          1.396739805731         -0.956244402215          2.820256627350
O          0.351261784719          0.605591651548          0.579178450312
H          0.524006559892          2.863735548582         -0.851360000859
H         -1.571605068083         -0.434132731257         -1.841374228834
H         -1.273871291233         -2.270336009178          0.154623980468
H         -0.430689857522         -1.846192881404          2.716590268403
H         -0.497523380628         -0.099542568090          3.045595305899
H          1.789806047128         -0.072721513738          2.724986455776
O          0.464026559278         -0.946829534827         -2.108191253189
O          1.274459786988          0.191415498219         -1.573316380496