17

O       -3.686311000     -0.458187000      0.096985000
C       -2.491692000     -0.851568000      0.005877000
C       -1.355483000     -0.035783000     -0.101550000
C       -1.144732000      1.349703000     -0.155627000
C        0.216353000      1.580770000     -0.264477000
C        0.862062000      0.301357000     -0.181717000
C        2.168693000     -0.041327000     -0.865361000
O        2.861652000     -1.103501000     -0.222892000
O       -0.095942000     -0.663785000     -0.229078000
H       -2.274134000     -1.938975000      0.005689000
H       -1.934984000      2.089624000     -0.119561000
H        0.732987000      2.529785000     -0.319976000
H        2.778354000      0.874451000     -0.894190000
H        1.960615000     -0.344955000     -1.898184000
H        2.662313000     -0.906278000      0.730938000
H        1.834417000      0.978010000      1.830092000
O        1.509254000      0.087903000      1.610275000
