47

O         -4.728489834667          0.090493083294          0.630729966119
C         -3.727024260335         -0.645483672474          0.404368743233
C         -2.748749947150         -1.019307286641          1.331356395878
C         -2.521700364208         -0.758188186328          2.694279982098
C         -1.359123680281         -1.391719379249          3.081643892202
C         -0.792928430382         -1.991786736654          1.899127343977
C         -0.030687209309         -3.293915835332          1.860197058563
O         -0.876909202877         -4.408329869934          2.177560968936
O         -1.703649506397         -1.874077240850          0.889912716520
H         -3.567185177469         -1.050557372977         -0.614637405931
H         -3.175373271307         -0.155042449100          3.312838637428
H         -0.886575152031         -1.393736519513          4.054544579404
H          0.755530164186         -3.274486571135          2.615466742220
H          0.430702894993         -3.427667901179          0.875041211833
H         -1.589566174477         -4.439471413120          1.517339322033
O          0.646061042786         -0.912483343229          1.480166540315
C          0.933086062773         -0.798331872855          0.155418386023
C          2.320222313642         -1.277046441798         -0.165533564963
C          3.315429079712         -1.800844943977          0.606909483447
C          4.395521232262         -2.125109844554         -0.282105299054
C          3.986906653898         -1.778607618398         -1.538371283400
C          4.601806489169         -1.876410886896         -2.889721473979
O          4.046525587185         -2.936252902016         -3.696507360544
O          2.714513928642         -1.257277757365         -1.479543130432
H          0.201439816254         -1.333839301374         -0.474497024862
H          3.269840637266         -1.942526892421          1.677050223960
H          5.351528429485         -2.562079632540         -0.024741527073
H          5.663075211183         -2.110340430558         -2.781986424679
H          4.509480330082         -0.919332157998         -3.421226700547
H          3.113696757299         -2.727954129570         -3.870222335332
O          0.897515075739          0.604665484629         -0.288609642942
C         -0.402351562437          1.124795479818         -0.366923567199
C         -0.290885151966          2.613824904322         -0.240518006149
C          0.757877850469          3.478249159076         -0.115854020094
C          0.190487521569          4.795168048697         -0.046113425070
C         -1.164450438796          4.643977087434         -0.124651734831
C         -2.312216590315          5.591501156804         -0.140303109269
O         -2.888376558661          5.768068482520         -1.450466568284
O         -1.471550099630          3.308314037201         -0.242179265084
H         -1.037773910640          0.714068818547          0.423863605968
H          1.801698981924          3.202535910925         -0.073924194981
H          0.719266854787          5.734109252599          0.051488004844
H         -1.961040474960          6.579105945602          0.165939161581
H         -3.086724170657          5.263661188729          0.566192333292
H         -3.289296408846          4.926146486904         -1.722733996415
H         -0.539661432473          1.096577208939         -2.318765574799
O         -1.059685261034          0.742481748142         -1.575863959409