47

O          0.093762702308         -1.956998506432          3.127861848268
C         -0.905206335370         -2.589327959787          2.626586404402
C         -0.877359032816         -3.657239807335          1.758891885517
C          0.199635868583         -4.409072194428          1.119207698038
C         -0.501595870459         -5.611166092748          0.618744288417
C         -1.831897673368         -5.386872313334          0.720568156543
C         -3.012309976032         -6.186317681261          0.275759930369
O         -3.861132088945         -6.573448009604          1.370067021145
O         -2.129753585601         -4.215056177715          1.348447610948
H         -1.926590522454         -2.255576299375          2.898343959657
H          1.122623968404         -4.530889654054          1.686863116884
H         -0.035927685787         -6.474079106710          0.161164393721
H         -2.672238195376         -7.112138297829         -0.192662270113
H         -3.591788809425         -5.615377708055         -0.464546079734
H         -4.171262166827         -5.763779121891          1.808794552167
O          0.772326305831         -3.646365178982         -0.218469338531
C          1.312196938353         -2.445276848387          0.095944109272
C          0.602412782477         -1.300378230736          0.044815607349
C         -0.752608966816         -1.025858271839         -0.383180738614
C         -1.022258338905          0.273283883083         -0.162661797060
C          0.196617666461          0.936584335723          0.428333438390
C          0.014702281448          1.551358864775          1.827679728181
O         -0.614097023236          0.673638312975          2.740057184864
O          1.153032936195         -0.116081521229          0.533482588946
H          2.323997580475         -2.432905962867          0.511314687138
H         -1.407627578817         -1.780020407127         -0.799719532852
H         -1.943081413831          0.810484472436         -0.344543710421
H         -0.633703824677          2.429024489709          1.762462533134
H          1.007755204638          1.872217775112          2.178765182945
H         -0.177357027224         -0.218571942259          2.783875670449
O          0.823110798107          1.875625518336         -0.483727263279
C          0.342609706936          3.199470754714         -0.557927944723
C          1.182963922006          3.877193095748         -1.597053360487
C          2.018937276576          3.431939612821         -2.579024109452
C          2.473304227629          4.599744891248         -3.278493590118
C          1.887859173706          5.674871174548         -2.673000507417
C          1.915543672544          7.142911757885         -2.919187933687
O          0.715350940627          7.638054431121         -3.545125940546
O          1.094060125431          5.242118052494         -1.636226288753
H          0.432722091527          3.723822675630          0.398947459184
H          2.279183110128          2.400786383697         -2.769839198159
H          3.150448395086          4.637414108082         -4.121426339587
H          2.728586446220          7.370239104794         -3.611751496834
H          2.097818753526          7.682943015283         -1.980278751932
H         -0.019883773416          7.538005121217         -2.918194063112
H         -1.182132973952          2.900925130873         -1.749559856603
O         -1.045406715242          3.268462520521         -0.857943647594