17

O       -3.620323000     -0.663346000      0.340238000
C       -2.880679000      0.243200000     -0.043545000
C       -1.386955000      0.230481000     -0.162537000
C       -0.771183000     -1.001074000      0.000050000
C        0.623842000     -1.361056000     -0.166229000
C        1.735018000     -0.629250000      0.090841000
C        1.775347000      0.712806000      0.774364000
O        1.701063000      1.810750000     -0.141204000
O       -0.871182000      1.391868000     -0.464503000
H       -3.317262000      1.220565000     -0.343174000
H       -1.453513000     -1.833334000      0.161943000
H        0.806628000     -2.362913000     -0.561885000
H        2.714034000      0.818218000      1.333925000
H        0.948158000      0.765677000      1.494211000
H        0.741513000      1.764256000     -0.431380000
H        3.680366000     -0.631607000      0.058412000
O        2.953909000     -1.153210000     -0.318246000
